Circuit: * C:\Users\XuLab\Desktop\LTSpice_CircuitSimulations\BJT_BridgeCkt_FWR.asc

Direct Newton iteration for .op point succeeded.
Changing Tseed to 1e-008
Changing Tseed to 1e-010
Changing Tseed to 1e-007
Changing Tseed to 1e-011
Changing Tseed to 1e-006
Changing Tseed to 1e-012
Changing Tseed to 1e-005
Changing Tseed to 1e-013

Date: Sat Jun 20 12:21:39 2020
Total elapsed time: 0.096 seconds.

tnom = 27
temp = 27
method = modified trap
totiter = 7628
traniter = 7600
tranpoints = 1612
accept = 1457
rejected = 147
matrix size = 11
fillins = 10
solver = Normal
Matrix Compiler1: 1.01 KB object code size  0.2/0.1/[0.1]
Matrix Compiler2: 1.09 KB object code size  0.1/0.1/[0.1]

